*SPEF "1481-1998"
*DESIGN "FPmult"
*DATE "Tue Dec 29 03:33:25 2015"
*VENDOR "Synopsys, Inc."
*PROGRAM "icc_shell"
*VERSION "G-2012.06-ICC-SP2"
*DESIGN_FLOW "PIN_CAP NONE"
*DIVIDER /
*DELIMITER :
*BUS_DELIMITER [ ]
*T_UNIT 1 NS
*C_UNIT 1 FF
*R_UNIT 1 OHM
*L_UNIT 1 HENRY

*NAME_MAP
*1 m[1]
*2 m[0]
*3 VDD
*4 VSS
*5 m[9]
*6 m[8]
*7 m[7]
*8 m[6]
*9 m[5]
*10 m[4]
*11 m[3]
*12 m[2]
*13 m[17]
*14 m[16]
*15 m[15]
*16 m[14]
*17 m[13]
*18 m[12]
*19 m[11]
*20 m[10]
*21 m[25]
*22 m[24]
*23 m[23]
*24 m[22]
*25 m[21]
*26 m[20]
*27 m[19]
*28 m[18]
*29 q[1]
*30 q[0]
*31 m[31]
*32 m[30]
*33 m[29]
*34 m[28]
*35 m[27]
*36 m[26]
*37 q[9]
*38 q[8]
*39 q[7]
*40 q[6]
*41 q[5]
*42 q[4]
*43 q[3]
*44 q[2]
*45 q[17]
*46 q[16]
*47 q[15]
*48 q[14]
*49 q[13]
*50 q[12]
*51 q[11]
*52 q[10]
*53 q[25]
*54 q[24]
*55 q[23]
*56 q[22]
*57 q[21]
*58 q[20]
*59 q[19]
*60 q[18]
*61 result_reg[1]
*62 result_reg[0]
*63 q[31]
*64 q[30]
*65 q[29]
*66 q[28]
*67 q[27]
*68 q[26]
*69 result_reg[9]
*70 result_reg[8]
*71 result_reg[7]
*72 result_reg[6]
*73 result_reg[5]
*74 result_reg[4]
*75 result_reg[3]
*76 result_reg[2]
*77 result_reg[17]
*78 result_reg[16]
*79 result_reg[15]
*80 result_reg[14]
*81 result_reg[13]
*82 result_reg[12]
*83 result_reg[11]
*84 result_reg[10]
*85 result_reg[25]
*86 result_reg[24]
*87 result_reg[23]
*88 result_reg[22]
*89 result_reg[21]
*90 result_reg[20]
*91 result_reg[19]
*92 result_reg[18]
*93 rst
*94 clk
*95 result_reg[31]
*96 result_reg[30]
*97 result_reg[29]
*98 result_reg[28]
*99 result_reg[27]
*100 result_reg[26]
*101 mult_32/n90
*102 mult_32/FS_1/U132
*103 mult_32/FS_1/U3
*104 mult_32/U91
*105 mult_32/n88
*106 mult_32/U89
*107 mult_32/FS_1/n109
*108 mult_32/FS_1/U26
*109 mult_32/FS_1/U2
*110 mult_32/n91
*111 mult_32/FS_1/U131
*112 mult_32/FS_1/U130
*113 mult_32/U92
*114 mult_32/n61
*115 mult_32/U60
*116 mult_32/FS_1/n106
*117 mult_32/FS_1/U129
*118 mult_32/FS_1/U124
*119 mult_32/FS_1/n107
*120 mult_32/FS_1/U25
*121 mult_32/FS_1/n108
*122 mult_32/FS_1/U128
*123 mult_32/FS_1/n24
*124 prod\[26\]
*125 U249
*126 mult_32/n54
*127 mult_32/FS_1/U127
*128 mult_32/FS_1/U126
*129 mult_32/U53
*130 mult_32/n47
*131 mult_32/U46
*132 mult_32/FS_1/n102
*133 mult_32/FS_1/U122
*134 mult_32/FS_1/U15
*135 mult_32/FS_1/n104
*136 mult_32/FS_1/U125
*137 mult_32/FS_1/n22
*138 mult_32/FS_1/n105
*139 mult_32/FS_1/U123
*140 mult_32/FS_1/n23
*141 mult_32/FS_1/n103
*142 prod\[27\]
*143 U240
*144 mult_32/FS_1/n98
*145 mult_32/FS_1/U118
*146 mult_32/FS_1/U114
*147 mult_32/n68
*148 mult_32/FS_1/U121
*149 mult_32/FS_1/U120
*150 mult_32/U67
*151 mult_32/n62
*152 mult_32/U61
*153 mult_32/FS_1/n99
*154 mult_32/FS_1/U119
*155 mult_32/FS_1/n100
*156 mult_32/FS_1/U4
*157 mult_32/FS_1/n101
*158 prod\[28\]
*159 U239
*160 mult_32/n55
*161 mult_32/FS_1/U117
*162 mult_32/FS_1/U116
*163 mult_32/U54
*164 mult_32/n48
*165 mult_32/U47
*166 mult_32/FS_1/n94
*167 mult_32/FS_1/U112
*168 mult_32/FS_1/U16
*169 mult_32/FS_1/n96
*170 mult_32/FS_1/U115
*171 mult_32/FS_1/n20
*172 mult_32/FS_1/n97
*173 mult_32/FS_1/U113
*174 mult_32/FS_1/n21
*175 mult_32/FS_1/n95
*176 prod\[29\]
*177 U241
*178 mult_32/FS_1/n90
*179 mult_32/FS_1/U108
*180 mult_32/FS_1/U104
*181 mult_32/n69
*182 mult_32/FS_1/U111
*183 mult_32/FS_1/U110
*184 mult_32/U68
*185 mult_32/n63
*186 mult_32/U62
*187 mult_32/FS_1/n91
*188 mult_32/FS_1/U109
*189 mult_32/FS_1/n92
*190 mult_32/FS_1/U5
*191 mult_32/FS_1/n93
*192 prod\[30\]
*193 U232
*194 mult_32/n56
*195 mult_32/FS_1/U107
*196 mult_32/FS_1/U106
*197 mult_32/U55
*198 mult_32/n49
*199 mult_32/U48
*200 mult_32/FS_1/n86
*201 mult_32/FS_1/U102
*202 mult_32/FS_1/U17
*203 mult_32/FS_1/n88
*204 mult_32/FS_1/U105
*205 mult_32/FS_1/n18
*206 mult_32/FS_1/n89
*207 mult_32/FS_1/U103
*208 mult_32/FS_1/n19
*209 mult_32/FS_1/n87
*210 prod\[31\]
*211 U242
*212 mult_32/FS_1/n82
*213 mult_32/FS_1/U98
*214 mult_32/FS_1/U94
*215 mult_32/n70
*216 mult_32/FS_1/U101
*217 mult_32/FS_1/U100
*218 mult_32/U69
*219 mult_32/n64
*220 mult_32/U63
*221 mult_32/FS_1/n83
*222 mult_32/FS_1/U99
*223 mult_32/FS_1/n84
*224 mult_32/FS_1/U6
*225 mult_32/FS_1/n85
*226 prod\[32\]
*227 U233
*228 mult_32/n57
*229 mult_32/FS_1/U97
*230 mult_32/FS_1/U96
*231 mult_32/U56
*232 mult_32/n50
*233 mult_32/U49
*234 mult_32/FS_1/n78
*235 mult_32/FS_1/U92
*236 mult_32/FS_1/U18
*237 mult_32/FS_1/n80
*238 mult_32/FS_1/U95
*239 mult_32/FS_1/n16
*240 mult_32/FS_1/n81
*241 mult_32/FS_1/U93
*242 mult_32/FS_1/n17
*243 mult_32/FS_1/n79
*244 prod\[33\]
*245 U243
*246 mult_32/FS_1/n74
*247 mult_32/FS_1/U88
*248 mult_32/FS_1/U84
*249 mult_32/n71
*250 mult_32/FS_1/U91
*251 mult_32/FS_1/U90
*252 mult_32/U70
*253 mult_32/n65
*254 mult_32/U64
*255 mult_32/FS_1/n75
*256 mult_32/FS_1/U89
*257 mult_32/FS_1/n76
*258 mult_32/FS_1/U7
*259 mult_32/FS_1/n77
*260 prod\[34\]
*261 U234
*262 mult_32/n58
*263 mult_32/FS_1/U87
*264 mult_32/FS_1/U86
*265 mult_32/U57
*266 mult_32/n51
*267 mult_32/U50
*268 mult_32/FS_1/n70
*269 mult_32/FS_1/U82
*270 mult_32/FS_1/U19
*271 mult_32/FS_1/n72
*272 mult_32/FS_1/U85
*273 mult_32/FS_1/n14
*274 mult_32/FS_1/n73
*275 mult_32/FS_1/U83
*276 mult_32/FS_1/n15
*277 mult_32/FS_1/n71
*278 prod\[35\]
*279 U244
*280 mult_32/FS_1/n66
*281 mult_32/FS_1/U78
*282 mult_32/FS_1/U74
*283 mult_32/n72
*284 mult_32/FS_1/U81
*285 mult_32/FS_1/U80
*286 mult_32/U71
*287 mult_32/n66
*288 mult_32/U65
*289 mult_32/FS_1/n67
*290 mult_32/FS_1/U79
*291 mult_32/FS_1/n68
*292 mult_32/FS_1/U8
*293 mult_32/FS_1/n69
*294 prod\[36\]
*295 U235
*296 mult_32/n59
*297 mult_32/FS_1/U77
*298 mult_32/FS_1/U76
*299 mult_32/U58
*300 mult_32/n52
*301 mult_32/U51
*302 mult_32/FS_1/n62
*303 mult_32/FS_1/U72
*304 mult_32/FS_1/U20
*305 mult_32/FS_1/n64
*306 mult_32/FS_1/U75
*307 mult_32/FS_1/n12
*308 mult_32/FS_1/n65
*309 mult_32/FS_1/U73
*310 mult_32/FS_1/n13
*311 mult_32/FS_1/n63
*312 prod\[37\]
*313 U245
*314 mult_32/FS_1/n58
*315 mult_32/FS_1/U68
*316 mult_32/FS_1/U64
*317 mult_32/n73
*318 mult_32/FS_1/U71
*319 mult_32/FS_1/U70
*320 mult_32/U72
*321 mult_32/n67
*322 mult_32/U66
*323 mult_32/FS_1/n59
*324 mult_32/FS_1/U69
*325 mult_32/FS_1/n60
*326 mult_32/FS_1/U9
*327 mult_32/FS_1/n61
*328 prod\[38\]
*329 U236
*330 mult_32/n60
*331 mult_32/FS_1/U67
*332 mult_32/FS_1/U66
*333 mult_32/U59
*334 mult_32/n53
*335 mult_32/U52
*336 mult_32/FS_1/n54
*337 mult_32/FS_1/U62
*338 mult_32/FS_1/U21
*339 mult_32/FS_1/n56
*340 mult_32/FS_1/U65
*341 mult_32/FS_1/n10
*342 mult_32/FS_1/n57
*343 mult_32/FS_1/U63
*344 mult_32/FS_1/n11
*345 mult_32/FS_1/n55
*346 prod\[39\]
*347 U246
*348 mult_32/FS_1/n50
*349 mult_32/FS_1/U58
*350 mult_32/FS_1/U54
*351 mult_32/n84
*352 mult_32/FS_1/U61
*353 mult_32/FS_1/U60
*354 mult_32/U83
*355 mult_32/n81
*356 mult_32/U80
*357 mult_32/FS_1/n51
*358 mult_32/FS_1/U59
*359 mult_32/FS_1/n52
*360 mult_32/FS_1/U10
*361 mult_32/FS_1/n53
*362 prod\[40\]
*363 U237
*364 mult_32/n78
*365 mult_32/FS_1/U57
*366 mult_32/FS_1/U56
*367 mult_32/U77
*368 mult_32/n75
*369 mult_32/U74
*370 mult_32/FS_1/n46
*371 mult_32/FS_1/U52
*372 mult_32/FS_1/U22
*373 mult_32/FS_1/n48
*374 mult_32/FS_1/U55
*375 mult_32/FS_1/n8
*376 mult_32/FS_1/n49
*377 mult_32/FS_1/U53
*378 mult_32/FS_1/n9
*379 mult_32/FS_1/n47
*380 prod\[41\]
*381 U247
*382 mult_32/FS_1/n42
*383 mult_32/FS_1/U48
*384 mult_32/FS_1/U44
*385 mult_32/n85
*386 mult_32/FS_1/U51
*387 mult_32/FS_1/U50
*388 mult_32/U84
*389 mult_32/n82
*390 mult_32/U81
*391 mult_32/FS_1/n43
*392 mult_32/FS_1/U49
*393 mult_32/FS_1/n44
*394 mult_32/FS_1/U11
*395 mult_32/FS_1/n45
*396 prod\[42\]
*397 U238
*398 mult_32/n79
*399 mult_32/FS_1/U47
*400 mult_32/FS_1/U46
*401 mult_32/U78
*402 mult_32/n76
*403 mult_32/U75
*404 mult_32/FS_1/n38
*405 mult_32/FS_1/U42
*406 mult_32/FS_1/U13
*407 mult_32/FS_1/n40
*408 mult_32/FS_1/U45
*409 mult_32/FS_1/n6
*410 mult_32/FS_1/n41
*411 mult_32/FS_1/U43
*412 mult_32/FS_1/n7
*413 mult_32/FS_1/n39
*414 prod\[43\]
*415 U230
*416 mult_32/FS_1/n34
*417 mult_32/FS_1/U38
*418 mult_32/FS_1/U34
*419 mult_32/n86
*420 mult_32/FS_1/U41
*421 mult_32/FS_1/U40
*422 mult_32/U85
*423 mult_32/n83
*424 mult_32/U82
*425 mult_32/FS_1/n35
*426 mult_32/FS_1/U39
*427 mult_32/FS_1/n36
*428 mult_32/FS_1/U12
*429 mult_32/FS_1/n37
*430 prod\[44\]
*431 U229
*432 mult_32/n80
*433 mult_32/FS_1/U37
*434 mult_32/FS_1/U36
*435 mult_32/U79
*436 mult_32/n77
*437 mult_32/U76
*438 mult_32/FS_1/n30
*439 mult_32/FS_1/U32
*440 mult_32/FS_1/U14
*441 mult_32/FS_1/n32
*442 mult_32/FS_1/U35
*443 mult_32/FS_1/n4
*444 mult_32/FS_1/n33
*445 mult_32/FS_1/U33
*446 mult_32/FS_1/n5
*447 mult_32/FS_1/n31
*448 prod\[45\]
*449 U231
*450 mult_32/FS_1/n26
*451 mult_32/FS_1/U28
*452 mult_32/FS_1/U27
*453 mult_32/n87
*454 mult_32/FS_1/U31
*455 mult_32/FS_1/U30
*456 mult_32/U86
*457 mult_32/n74
*458 mult_32/U73
*459 mult_32/FS_1/n27
*460 mult_32/FS_1/U29
*461 mult_32/FS_1/n28
*462 mult_32/FS_1/U23
*463 mult_32/FS_1/n29
*464 prod\[46\]
*465 U274
*466 mult_32/FS_1/n3
*467 mult_32/FS_1/n25
*468 mult_32/FS_1/U24
*469 mult_32/n46
*470 mult_32/U45
*471 N76
*472 add_0_root_sub_1_root_add_35_2_U1_1
*473 U3
*474 U250
*475 U251
*476 U28
*477 U11
*478 U23
*479 mult_32/FS_1/n2
*480 prod\[25\]
*481 U248
*482 mult_32/ab_1__1_
*483 mult_32/U802
*484 mult_32/U801
*485 mult_32/U90
*486 mult_32/U22
*487 multiplicand_reg\[0\]
*488 U315
*489 multiplicand_reg_reg_0_
*490 mult_32/U126
*491 multiplier_reg\[0\]
*492 U316
*493 multiplier_reg_reg_0_
*494 mult_32/U136
*495 mult_32/CARRYB_1__0_
*496 mult_32/S1_2_0
*497 mult_32/n119
*498 mult_32/U746
*499 mult_32/U745
*500 mult_32/U744
*501 mult_32/U743
*502 mult_32/U754
*503 mult_32/U753
*504 mult_32/U752
*505 mult_32/U751
*506 mult_32/U750
*507 mult_32/U749
*508 mult_32/U748
*509 mult_32/U747
*510 mult_32/U734
*511 mult_32/U733
*512 mult_32/U732
*513 mult_32/U731
*514 mult_32/U742
*515 mult_32/U741
*516 mult_32/U740
*517 mult_32/U739
*518 mult_32/U738
*519 mult_32/U737
*520 mult_32/U736
*521 mult_32/U735
*522 mult_32/U119
*523 mult_32/ab_0__10_
*524 mult_32/U800
*525 mult_32/U37
*526 mult_32/U14
*527 mult_32/n117
*528 mult_32/U698
*529 mult_32/U697
*530 mult_32/U696
*531 mult_32/U695
*532 mult_32/U706
*533 mult_32/U705
*534 mult_32/U704
*535 mult_32/U703
*536 mult_32/U702
*537 mult_32/U701
*538 mult_32/U700
*539 mult_32/U699
*540 mult_32/U686
*541 mult_32/U685
*542 mult_32/U684
*543 mult_32/U683
*544 mult_32/U694
*545 mult_32/U693
*546 mult_32/U692
*547 mult_32/U691
*548 mult_32/U690
*549 mult_32/U689
*550 mult_32/U688
*551 mult_32/U687
*552 mult_32/U117
*553 mult_32/ab_0__11_
*554 mult_32/U799
*555 mult_32/U36
*556 mult_32/U13
*557 mult_32/n115
*558 mult_32/U650
*559 mult_32/U649
*560 mult_32/U648
*561 mult_32/U647
*562 mult_32/U658
*563 mult_32/U657
*564 mult_32/U656
*565 mult_32/U655
*566 mult_32/U654
*567 mult_32/U653
*568 mult_32/U652
*569 mult_32/U651
*570 mult_32/U638
*571 mult_32/U637
*572 mult_32/U636
*573 mult_32/U635
*574 mult_32/U646
*575 mult_32/U645
*576 mult_32/U644
*577 mult_32/U643
*578 mult_32/U642
*579 mult_32/U641
*580 mult_32/U640
*581 mult_32/U639
*582 mult_32/U115
*583 mult_32/ab_0__12_
*584 mult_32/U798
*585 mult_32/U35
*586 mult_32/U12
*587 mult_32/n113
*588 mult_32/U602
*589 mult_32/U601
*590 mult_32/U600
*591 mult_32/U599
*592 mult_32/U610
*593 mult_32/U609
*594 mult_32/U608
*595 mult_32/U607
*596 mult_32/U606
*597 mult_32/U605
*598 mult_32/U604
*599 mult_32/U603
*600 mult_32/U590
*601 mult_32/U589
*602 mult_32/U588
*603 mult_32/U587
*604 mult_32/U598
*605 mult_32/U597
*606 mult_32/U596
*607 mult_32/U595
*608 mult_32/U594
*609 mult_32/U593
*610 mult_32/U592
*611 mult_32/U591
*612 mult_32/U113
*613 mult_32/ab_0__13_
*614 mult_32/U797
*615 mult_32/U34
*616 mult_32/U11
*617 mult_32/n111
*618 mult_32/U554
*619 mult_32/U553
*620 mult_32/U552
*621 mult_32/U551
*622 mult_32/U562
*623 mult_32/U561
*624 mult_32/U560
*625 mult_32/U559
*626 mult_32/U558
*627 mult_32/U557
*628 mult_32/U556
*629 mult_32/U555
*630 mult_32/U542
*631 mult_32/U541
*632 mult_32/U540
*633 mult_32/U539
*634 mult_32/U550
*635 mult_32/U549
*636 mult_32/U548
*637 mult_32/U547
*638 mult_32/U546
*639 mult_32/U545
*640 mult_32/U544
*641 mult_32/U543
*642 mult_32/U111
*643 mult_32/ab_0__14_
*644 mult_32/U796
*645 mult_32/U33
*646 mult_32/U10
*647 mult_32/n109
*648 mult_32/U484
*649 mult_32/U483
*650 mult_32/U482
*651 mult_32/U481
*652 mult_32/U492
*653 mult_32/U491
*654 mult_32/U490
*655 mult_32/U489
*656 mult_32/U488
*657 mult_32/U487
*658 mult_32/U486
*659 mult_32/U485
*660 mult_32/U472
*661 mult_32/U471
*662 mult_32/U470
*663 mult_32/U469
*664 mult_32/U480
*665 mult_32/U479
*666 mult_32/U478
*667 mult_32/U477
*668 mult_32/U476
*669 mult_32/U475
*670 mult_32/U474
*671 mult_32/U473
*672 mult_32/U109
*673 mult_32/ab_0__15_
*674 mult_32/U795
*675 mult_32/U32
*676 mult_32/U9
*677 mult_32/n107
*678 mult_32/U304
*679 mult_32/U280
*680 mult_32/U256
*681 mult_32/U232
*682 mult_32/U496
*683 mult_32/U448
*684 mult_32/U424
*685 mult_32/U400
*686 mult_32/U376
*687 mult_32/U352
*688 mult_32/U328
*689 mult_32/U566
*690 mult_32/U520
*691 mult_32/U782
*692 mult_32/U758
*693 mult_32/U710
*694 mult_32/U662
*695 mult_32/U614
*696 mult_32/U107
*697 mult_32/ab_0__16_
*698 mult_32/U794
*699 mult_32/U31
*700 mult_32/U8
*701 mult_32/n105
*702 mult_32/U302
*703 mult_32/U278
*704 mult_32/U254
*705 mult_32/U230
*706 mult_32/U494
*707 mult_32/U446
*708 mult_32/U422
*709 mult_32/U398
*710 mult_32/U374
*711 mult_32/U350
*712 mult_32/U326
*713 mult_32/U564
*714 mult_32/U518
*715 mult_32/U780
*716 mult_32/U756
*717 mult_32/U708
*718 mult_32/U660
*719 mult_32/U612
*720 mult_32/U105
*721 mult_32/ab_0__17_
*722 mult_32/U793
*723 mult_32/U30
*724 mult_32/U7
*725 mult_32/n103
*726 mult_32/U323
*727 mult_32/U299
*728 mult_32/U275
*729 mult_32/U251
*730 mult_32/U515
*731 mult_32/U467
*732 mult_32/U443
*733 mult_32/U419
*734 mult_32/U395
*735 mult_32/U371
*736 mult_32/U347
*737 mult_32/U585
*738 mult_32/U538
*739 mult_32/U777
*740 mult_32/U729
*741 mult_32/U681
*742 mult_32/U633
*743 mult_32/U103
*744 mult_32/ab_0__18_
*745 mult_32/U792
*746 mult_32/U29
*747 mult_32/U6
*748 mult_32/n101
*749 mult_32/U321
*750 mult_32/U297
*751 mult_32/U273
*752 mult_32/U249
*753 mult_32/U513
*754 mult_32/U465
*755 mult_32/U441
*756 mult_32/U417
*757 mult_32/U393
*758 mult_32/U369
*759 mult_32/U345
*760 mult_32/U583
*761 mult_32/U536
*762 mult_32/U775
*763 mult_32/U727
*764 mult_32/U679
*765 mult_32/U631
*766 mult_32/U101
*767 mult_32/ab_0__19_
*768 mult_32/U791
*769 mult_32/U28
*770 mult_32/U5
*771 mult_32/n99
*772 mult_32/U319
*773 mult_32/U295
*774 mult_32/U271
*775 mult_32/U247
*776 mult_32/U511
*777 mult_32/U463
*778 mult_32/U439
*779 mult_32/U415
*780 mult_32/U391
*781 mult_32/U367
*782 mult_32/U343
*783 mult_32/U581
*784 mult_32/U534
*785 mult_32/U773
*786 mult_32/U725
*787 mult_32/U677
*788 mult_32/U629
*789 mult_32/U99
*790 mult_32/ab_0__20_
*791 mult_32/U790
*792 mult_32/U27
*793 mult_32/U4
*794 mult_32/n97
*795 mult_32/U317
*796 mult_32/U293
*797 mult_32/U269
*798 mult_32/U245
*799 mult_32/U509
*800 mult_32/U461
*801 mult_32/U437
*802 mult_32/U413
*803 mult_32/U389
*804 mult_32/U365
*805 mult_32/U341
*806 mult_32/U579
*807 mult_32/U532
*808 mult_32/U771
*809 mult_32/U723
*810 mult_32/U675
*811 mult_32/U627
*812 mult_32/U97
*813 mult_32/ab_0__21_
*814 mult_32/U789
*815 mult_32/U26
*816 mult_32/U3
*817 mult_32/n95
*818 mult_32/U315
*819 mult_32/U291
*820 mult_32/U267
*821 mult_32/U243
*822 mult_32/U507
*823 mult_32/U459
*824 mult_32/U435
*825 mult_32/U411
*826 mult_32/U387
*827 mult_32/U363
*828 mult_32/U339
*829 mult_32/U577
*830 mult_32/U530
*831 mult_32/U769
*832 mult_32/U721
*833 mult_32/U673
*834 mult_32/U625
*835 mult_32/U95
*836 mult_32/ab_0__22_
*837 mult_32/U788
*838 mult_32/U25
*839 mult_32/U2
*840 mult_32/n93
*841 mult_32/U312
*842 mult_32/U288
*843 mult_32/U264
*844 mult_32/U240
*845 mult_32/U504
*846 mult_32/U456
*847 mult_32/U432
*848 mult_32/U408
*849 mult_32/U384
*850 mult_32/U360
*851 mult_32/U336
*852 mult_32/U574
*853 mult_32/U528
*854 mult_32/U766
*855 mult_32/U718
*856 mult_32/U670
*857 mult_32/U622
*858 mult_32/U88
*859 mult_32/ab_0__23_
*860 mult_32/U787
*861 mult_32/U24
*862 mult_32/U23
*863 mult_32/n135
*864 mult_32/U523
*865 mult_32/U522
*866 mult_32/U521
*867 mult_32/U519
*868 mult_32/U517
*869 mult_32/U531
*870 mult_32/U529
*871 mult_32/U527
*872 mult_32/U526
*873 mult_32/U525
*874 mult_32/U524
*875 mult_32/U537
*876 mult_32/U535
*877 mult_32/U533
*878 mult_32/U135
*879 mult_32/ab_0__2_
*880 mult_32/U786
*881 mult_32/n133
*882 mult_32/U388
*883 mult_32/U386
*884 mult_32/U385
*885 mult_32/U396
*886 mult_32/U394
*887 mult_32/U392
*888 mult_32/U390
*889 mult_32/U375
*890 mult_32/U373
*891 mult_32/U383
*892 mult_32/U382
*893 mult_32/U381
*894 mult_32/U380
*895 mult_32/U379
*896 mult_32/U378
*897 mult_32/U377
*898 mult_32/U133
*899 mult_32/ab_0__3_
*900 mult_32/U785
*901 mult_32/U44
*902 mult_32/U21
*903 mult_32/n131
*904 mult_32/U340
*905 mult_32/U338
*906 mult_32/U337
*907 mult_32/U348
*908 mult_32/U346
*909 mult_32/U344
*910 mult_32/U342
*911 mult_32/U327
*912 mult_32/U325
*913 mult_32/U335
*914 mult_32/U334
*915 mult_32/U333
*916 mult_32/U332
*917 mult_32/U331
*918 mult_32/U330
*919 mult_32/U329
*920 mult_32/U131
*921 mult_32/ab_0__4_
*922 mult_32/U784
*923 mult_32/U43
*924 mult_32/U20
*925 mult_32/n129
*926 mult_32/U292
*927 mult_32/U290
*928 mult_32/U289
*929 mult_32/U300
*930 mult_32/U298
*931 mult_32/U296
*932 mult_32/U294
*933 mult_32/U279
*934 mult_32/U277
*935 mult_32/U287
*936 mult_32/U286
*937 mult_32/U285
*938 mult_32/U284
*939 mult_32/U283
*940 mult_32/U282
*941 mult_32/U281
*942 mult_32/U129
*943 mult_32/ab_0__5_
*944 mult_32/U783
*945 mult_32/U42
*946 mult_32/U19
*947 mult_32/n127
*948 mult_32/U244
*949 mult_32/U242
*950 mult_32/U241
*951 mult_32/U252
*952 mult_32/U250
*953 mult_32/U248
*954 mult_32/U246
*955 mult_32/U231
*956 mult_32/U229
*957 mult_32/U239
*958 mult_32/U238
*959 mult_32/U237
*960 mult_32/U236
*961 mult_32/U235
*962 mult_32/U234
*963 mult_32/U233
*964 mult_32/U127
*965 mult_32/ab_0__6_
*966 mult_32/U41
*967 mult_32/U18
*968 mult_32/n125
*969 mult_32/U361
*970 mult_32/U313
*971 mult_32/U265
*972 mult_32/U575
*973 mult_32/U505
*974 mult_32/U457
*975 mult_32/U433
*976 mult_32/U409
*977 mult_32/U767
*978 mult_32/U719
*979 mult_32/U671
*980 mult_32/U623
*981 mult_32/U125
*982 mult_32/ab_0__7_
*983 mult_32/U781
*984 mult_32/U40
*985 mult_32/U17
*986 mult_32/n123
*987 mult_32/U307
*988 mult_32/U259
*989 mult_32/U499
*990 mult_32/U451
*991 mult_32/U427
*992 mult_32/U403
*993 mult_32/U355
*994 mult_32/U569
*995 mult_32/U761
*996 mult_32/U713
*997 mult_32/U665
*998 mult_32/U617
*999 mult_32/U123
*1000 mult_32/ab_0__8_
*1001 mult_32/U39
*1002 mult_32/U16
*1003 mult_32/n121
*1004 mult_32/U305
*1005 mult_32/U257
*1006 mult_32/U497
*1007 mult_32/U449
*1008 mult_32/U425
*1009 mult_32/U401
*1010 mult_32/U353
*1011 mult_32/U567
*1012 mult_32/U759
*1013 mult_32/U711
*1014 mult_32/U663
*1015 mult_32/U615
*1016 mult_32/U121
*1017 mult_32/ab_0__9_
*1018 mult_32/U779
*1019 mult_32/U38
*1020 mult_32/U15
*1021 mult_32/ab_10__0_
*1022 mult_32/U778
*1023 mult_32/S1_10_0
*1024 mult_32/ab_10__10_
*1025 mult_32/S2_10_10
*1026 mult_32/ab_10__11_
*1027 mult_32/U776
*1028 mult_32/S2_10_11
*1029 mult_32/ab_10__12_
*1030 mult_32/S2_10_12
*1031 mult_32/ab_10__13_
*1032 mult_32/U774
*1033 mult_32/S2_10_13
*1034 mult_32/ab_10__14_
*1035 mult_32/S2_10_14
*1036 mult_32/ab_10__15_
*1037 mult_32/U772
*1038 mult_32/S2_10_15
*1039 mult_32/ab_10__16_
*1040 mult_32/S2_10_16
*1041 mult_32/ab_10__17_
*1042 mult_32/U770
*1043 mult_32/S2_10_17
*1044 mult_32/ab_10__18_
*1045 mult_32/S2_10_18
*1046 mult_32/ab_10__19_
*1047 mult_32/U768
*1048 mult_32/S2_10_19
*1049 mult_32/ab_10__1_
*1050 mult_32/S2_10_1
*1051 mult_32/ab_10__20_
*1052 mult_32/S2_10_20
*1053 mult_32/ab_10__21_
*1054 mult_32/U765
*1055 mult_32/S2_10_21
*1056 mult_32/ab_10__22_
*1057 mult_32/U764
*1058 mult_32/S3_10_22
*1059 mult_32/ab_10__23_
*1060 mult_32/U763
*1061 mult_32/S3_11_22
*1062 mult_32/ab_10__2_
*1063 mult_32/U762
*1064 mult_32/S2_10_2
*1065 mult_32/ab_10__3_
*1066 mult_32/S2_10_3
*1067 mult_32/ab_10__4_
*1068 mult_32/U760
*1069 mult_32/S2_10_4
*1070 mult_32/ab_10__5_
*1071 mult_32/S2_10_5
*1072 mult_32/ab_10__6_
*1073 mult_32/S2_10_6
*1074 mult_32/ab_10__7_
*1075 mult_32/U757
*1076 mult_32/S2_10_7
*1077 mult_32/ab_10__8_
*1078 mult_32/S2_10_8
*1079 mult_32/ab_10__9_
*1080 mult_32/U755
*1081 mult_32/S2_10_9
*1082 mult_32/ab_11__0_
*1083 mult_32/S1_11_0
*1084 mult_32/ab_11__10_
*1085 mult_32/S2_11_10
*1086 mult_32/ab_11__11_
*1087 mult_32/S2_11_11
*1088 mult_32/ab_11__12_
*1089 mult_32/S2_11_12
*1090 mult_32/ab_11__13_
*1091 mult_32/S2_11_13
*1092 mult_32/ab_11__14_
*1093 mult_32/S2_11_14
*1094 mult_32/ab_11__15_
*1095 mult_32/S2_11_15
*1096 mult_32/ab_11__16_
*1097 mult_32/S2_11_16
*1098 mult_32/ab_11__17_
*1099 mult_32/S2_11_17
*1100 mult_32/ab_11__18_
*1101 mult_32/S2_11_18
*1102 mult_32/ab_11__19_
*1103 mult_32/S2_11_19
*1104 mult_32/ab_11__1_
*1105 mult_32/S2_11_1
*1106 mult_32/ab_11__20_
*1107 mult_32/S2_11_20
*1108 mult_32/ab_11__21_
*1109 mult_32/S2_11_21
*1110 mult_32/ab_11__22_
*1111 mult_32/ab_11__23_
*1112 mult_32/S3_12_22
*1113 mult_32/ab_11__2_
*1114 mult_32/S2_11_2
*1115 mult_32/ab_11__3_
*1116 mult_32/S2_11_3
*1117 mult_32/ab_11__4_
*1118 mult_32/S2_11_4
*1119 mult_32/ab_11__5_
*1120 mult_32/S2_11_5
*1121 mult_32/ab_11__6_
*1122 mult_32/S2_11_6
*1123 mult_32/ab_11__7_
*1124 mult_32/S2_11_7
*1125 mult_32/ab_11__8_
*1126 mult_32/S2_11_8
*1127 mult_32/ab_11__9_
*1128 mult_32/S2_11_9
*1129 mult_32/ab_12__0_
*1130 mult_32/U730
*1131 mult_32/S1_12_0
*1132 mult_32/ab_12__10_
*1133 mult_32/S2_12_10
*1134 mult_32/ab_12__11_
*1135 mult_32/U728
*1136 mult_32/S2_12_11
*1137 mult_32/ab_12__12_
*1138 mult_32/S2_12_12
*1139 mult_32/ab_12__13_
*1140 mult_32/U726
*1141 mult_32/S2_12_13
*1142 mult_32/ab_12__14_
*1143 mult_32/S2_12_14
*1144 mult_32/ab_12__15_
*1145 mult_32/U724
*1146 mult_32/S2_12_15
*1147 mult_32/ab_12__16_
*1148 mult_32/S2_12_16
*1149 mult_32/ab_12__17_
*1150 mult_32/U722
*1151 mult_32/S2_12_17
*1152 mult_32/ab_12__18_
*1153 mult_32/S2_12_18
*1154 mult_32/ab_12__19_
*1155 mult_32/U720
*1156 mult_32/S2_12_19
*1157 mult_32/ab_12__1_
*1158 mult_32/S2_12_1
*1159 mult_32/ab_12__20_
*1160 mult_32/S2_12_20
*1161 mult_32/ab_12__21_
*1162 mult_32/U717
*1163 mult_32/S2_12_21
*1164 mult_32/ab_12__22_
*1165 mult_32/U716
*1166 mult_32/ab_12__23_
*1167 mult_32/U715
*1168 mult_32/S3_13_22
*1169 mult_32/ab_12__2_
*1170 mult_32/U714
*1171 mult_32/S2_12_2
*1172 mult_32/ab_12__3_
*1173 mult_32/S2_12_3
*1174 mult_32/ab_12__4_
*1175 mult_32/U712
*1176 mult_32/S2_12_4
*1177 mult_32/ab_12__5_
*1178 mult_32/S2_12_5
*1179 mult_32/ab_12__6_
*1180 mult_32/S2_12_6
*1181 mult_32/ab_12__7_
*1182 mult_32/U709
*1183 mult_32/S2_12_7
*1184 mult_32/ab_12__8_
*1185 mult_32/S2_12_8
*1186 mult_32/ab_12__9_
*1187 mult_32/U707
*1188 mult_32/S2_12_9
*1189 mult_32/ab_13__0_
*1190 mult_32/S1_13_0
*1191 mult_32/ab_13__10_
*1192 mult_32/S2_13_10
*1193 mult_32/ab_13__11_
*1194 mult_32/S2_13_11
*1195 mult_32/ab_13__12_
*1196 mult_32/S2_13_12
*1197 mult_32/ab_13__13_
*1198 mult_32/S2_13_13
*1199 mult_32/ab_13__14_
*1200 mult_32/S2_13_14
*1201 mult_32/ab_13__15_
*1202 mult_32/S2_13_15
*1203 mult_32/ab_13__16_
*1204 mult_32/S2_13_16
*1205 mult_32/ab_13__17_
*1206 mult_32/S2_13_17
*1207 mult_32/ab_13__18_
*1208 mult_32/S2_13_18
*1209 mult_32/ab_13__19_
*1210 mult_32/S2_13_19
*1211 mult_32/ab_13__1_
*1212 mult_32/S2_13_1
*1213 mult_32/ab_13__20_
*1214 mult_32/S2_13_20
*1215 mult_32/ab_13__21_
*1216 mult_32/S2_13_21
*1217 mult_32/ab_13__22_
*1218 mult_32/ab_13__23_
*1219 mult_32/S3_14_22
*1220 mult_32/ab_13__2_
*1221 mult_32/S2_13_2
*1222 mult_32/ab_13__3_
*1223 mult_32/S2_13_3
*1224 mult_32/ab_13__4_
*1225 mult_32/S2_13_4
*1226 mult_32/ab_13__5_
*1227 mult_32/S2_13_5
*1228 mult_32/ab_13__6_
*1229 mult_32/S2_13_6
*1230 mult_32/ab_13__7_
*1231 mult_32/S2_13_7
*1232 mult_32/ab_13__8_
*1233 mult_32/S2_13_8
*1234 mult_32/ab_13__9_
*1235 mult_32/S2_13_9
*1236 mult_32/ab_14__0_
*1237 mult_32/U682
*1238 mult_32/S1_14_0
*1239 mult_32/ab_14__10_
*1240 mult_32/S2_14_10
*1241 mult_32/ab_14__11_
*1242 mult_32/U680
*1243 mult_32/S2_14_11
*1244 mult_32/ab_14__12_
*1245 mult_32/S2_14_12
*1246 mult_32/ab_14__13_
*1247 mult_32/U678
*1248 mult_32/S2_14_13
*1249 mult_32/ab_14__14_
*1250 mult_32/S2_14_14
*1251 mult_32/ab_14__15_
*1252 mult_32/U676
*1253 mult_32/S2_14_15
*1254 mult_32/ab_14__16_
*1255 mult_32/S2_14_16
*1256 mult_32/ab_14__17_
*1257 mult_32/U674
*1258 mult_32/S2_14_17
*1259 mult_32/ab_14__18_
*1260 mult_32/S2_14_18
*1261 mult_32/ab_14__19_
*1262 mult_32/U672
*1263 mult_32/S2_14_19
*1264 mult_32/ab_14__1_
*1265 mult_32/S2_14_1
*1266 mult_32/ab_14__20_
*1267 mult_32/S2_14_20
*1268 mult_32/ab_14__21_
*1269 mult_32/U669
*1270 mult_32/S2_14_21
*1271 mult_32/ab_14__22_
*1272 mult_32/U668
*1273 mult_32/ab_14__23_
*1274 mult_32/U667
*1275 mult_32/S3_15_22
*1276 mult_32/ab_14__2_
*1277 mult_32/U666
*1278 mult_32/S2_14_2
*1279 mult_32/ab_14__3_
*1280 mult_32/S2_14_3
*1281 mult_32/ab_14__4_
*1282 mult_32/U664
*1283 mult_32/S2_14_4
*1284 mult_32/ab_14__5_
*1285 mult_32/S2_14_5
*1286 mult_32/ab_14__6_
*1287 mult_32/S2_14_6
*1288 mult_32/ab_14__7_
*1289 mult_32/U661
*1290 mult_32/S2_14_7
*1291 mult_32/ab_14__8_
*1292 mult_32/S2_14_8
*1293 mult_32/ab_14__9_
*1294 mult_32/U659
*1295 mult_32/S2_14_9
*1296 mult_32/ab_15__0_
*1297 mult_32/S1_15_0
*1298 mult_32/ab_15__10_
*1299 mult_32/S2_15_10
*1300 mult_32/ab_15__11_
*1301 mult_32/S2_15_11
*1302 mult_32/ab_15__12_
*1303 mult_32/S2_15_12
*1304 mult_32/ab_15__13_
*1305 mult_32/S2_15_13
*1306 mult_32/ab_15__14_
*1307 mult_32/S2_15_14
*1308 mult_32/ab_15__15_
*1309 mult_32/S2_15_15
*1310 mult_32/ab_15__16_
*1311 mult_32/S2_15_16
*1312 mult_32/ab_15__17_
*1313 mult_32/S2_15_17
*1314 mult_32/ab_15__18_
*1315 mult_32/S2_15_18
*1316 mult_32/ab_15__19_
*1317 mult_32/S2_15_19
*1318 mult_32/ab_15__1_
*1319 mult_32/S2_15_1
*1320 mult_32/ab_15__20_
*1321 mult_32/S2_15_20
*1322 mult_32/ab_15__21_
*1323 mult_32/S2_15_21
*1324 mult_32/ab_15__22_
*1325 mult_32/ab_15__23_
*1326 mult_32/S3_16_22
*1327 mult_32/ab_15__2_
*1328 mult_32/S2_15_2
*1329 mult_32/ab_15__3_
*1330 mult_32/S2_15_3
*1331 mult_32/ab_15__4_
*1332 mult_32/S2_15_4
*1333 mult_32/ab_15__5_
*1334 mult_32/S2_15_5
*1335 mult_32/ab_15__6_
*1336 mult_32/S2_15_6
*1337 mult_32/ab_15__7_
*1338 mult_32/S2_15_7
*1339 mult_32/ab_15__8_
*1340 mult_32/S2_15_8
*1341 mult_32/ab_15__9_
*1342 mult_32/S2_15_9
*1343 mult_32/ab_16__0_
*1344 mult_32/U634
*1345 mult_32/S1_16_0
*1346 mult_32/ab_16__10_
*1347 mult_32/S2_16_10
*1348 mult_32/ab_16__11_
*1349 mult_32/U632
*1350 mult_32/S2_16_11
*1351 mult_32/ab_16__12_
*1352 mult_32/S2_16_12
*1353 mult_32/ab_16__13_
*1354 mult_32/U630
*1355 mult_32/S2_16_13
*1356 mult_32/ab_16__14_
*1357 mult_32/S2_16_14
*1358 mult_32/ab_16__15_
*1359 mult_32/U628
*1360 mult_32/S2_16_15
*1361 mult_32/ab_16__16_
*1362 mult_32/S2_16_16
*1363 mult_32/ab_16__17_
*1364 mult_32/U626
*1365 mult_32/S2_16_17
*1366 mult_32/ab_16__18_
*1367 mult_32/S2_16_18
*1368 mult_32/ab_16__19_
*1369 mult_32/U624
*1370 mult_32/S2_16_19
*1371 mult_32/ab_16__1_
*1372 mult_32/S2_16_1
*1373 mult_32/ab_16__20_
*1374 mult_32/S2_16_20
*1375 mult_32/ab_16__21_
*1376 mult_32/U621
*1377 mult_32/S2_16_21
*1378 mult_32/ab_16__22_
*1379 mult_32/U620
*1380 mult_32/ab_16__23_
*1381 mult_32/U619
*1382 mult_32/S3_17_22
*1383 mult_32/ab_16__2_
*1384 mult_32/U618
*1385 mult_32/S2_16_2
*1386 mult_32/ab_16__3_
*1387 mult_32/S2_16_3
*1388 mult_32/ab_16__4_
*1389 mult_32/U616
*1390 mult_32/S2_16_4
*1391 mult_32/ab_16__5_
*1392 mult_32/S2_16_5
*1393 mult_32/ab_16__6_
*1394 mult_32/S2_16_6
*1395 mult_32/ab_16__7_
*1396 mult_32/U613
*1397 mult_32/S2_16_7
*1398 mult_32/ab_16__8_
*1399 mult_32/S2_16_8
*1400 mult_32/ab_16__9_
*1401 mult_32/U611
*1402 mult_32/S2_16_9
*1403 mult_32/ab_17__0_
*1404 mult_32/S1_17_0
*1405 mult_32/ab_17__10_
*1406 mult_32/S2_17_10
*1407 mult_32/ab_17__11_
*1408 mult_32/S2_17_11
*1409 mult_32/ab_17__12_
*1410 mult_32/S2_17_12
*1411 mult_32/ab_17__13_
*1412 mult_32/S2_17_13
*1413 mult_32/ab_17__14_
*1414 mult_32/S2_17_14
*1415 mult_32/ab_17__15_
*1416 mult_32/S2_17_15
*1417 mult_32/ab_17__16_
*1418 mult_32/S2_17_16
*1419 mult_32/ab_17__17_
*1420 mult_32/S2_17_17
*1421 mult_32/ab_17__18_
*1422 mult_32/S2_17_18
*1423 mult_32/ab_17__19_
*1424 mult_32/S2_17_19
*1425 mult_32/ab_17__1_
*1426 mult_32/S2_17_1
*1427 mult_32/ab_17__20_
*1428 mult_32/S2_17_20
*1429 mult_32/ab_17__21_
*1430 mult_32/S2_17_21
*1431 mult_32/ab_17__22_
*1432 mult_32/ab_17__23_
*1433 mult_32/S3_18_22
*1434 mult_32/ab_17__2_
*1435 mult_32/S2_17_2
*1436 mult_32/ab_17__3_
*1437 mult_32/S2_17_3
*1438 mult_32/ab_17__4_
*1439 mult_32/S2_17_4
*1440 mult_32/ab_17__5_
*1441 mult_32/S2_17_5
*1442 mult_32/ab_17__6_
*1443 mult_32/S2_17_6
*1444 mult_32/ab_17__7_
*1445 mult_32/S2_17_7
*1446 mult_32/ab_17__8_
*1447 mult_32/S2_17_8
*1448 mult_32/ab_17__9_
*1449 mult_32/S2_17_9
*1450 mult_32/ab_18__0_
*1451 mult_32/U586
*1452 mult_32/S1_18_0
*1453 mult_32/ab_18__10_
*1454 mult_32/S2_18_10
*1455 mult_32/ab_18__11_
*1456 mult_32/U584
*1457 mult_32/S2_18_11
*1458 mult_32/ab_18__12_
*1459 mult_32/S2_18_12
*1460 mult_32/ab_18__13_
*1461 mult_32/U582
*1462 mult_32/S2_18_13
*1463 mult_32/ab_18__14_
*1464 mult_32/S2_18_14
*1465 mult_32/ab_18__15_
*1466 mult_32/U580
*1467 mult_32/S2_18_15
*1468 mult_32/ab_18__16_
*1469 mult_32/S2_18_16
*1470 mult_32/ab_18__17_
*1471 mult_32/U578
*1472 mult_32/S2_18_17
*1473 mult_32/ab_18__18_
*1474 mult_32/S2_18_18
*1475 mult_32/ab_18__19_
*1476 mult_32/U576
*1477 mult_32/S2_18_19
*1478 mult_32/ab_18__1_
*1479 mult_32/S2_18_1
*1480 mult_32/ab_18__20_
*1481 mult_32/S2_18_20
*1482 mult_32/ab_18__21_
*1483 mult_32/U573
*1484 mult_32/S2_18_21
*1485 mult_32/ab_18__22_
*1486 mult_32/U572
*1487 mult_32/ab_18__23_
*1488 mult_32/U571
*1489 mult_32/S3_19_22
*1490 mult_32/ab_18__2_
*1491 mult_32/U570
*1492 mult_32/S2_18_2
*1493 mult_32/ab_18__3_
*1494 mult_32/S2_18_3
*1495 mult_32/ab_18__4_
*1496 mult_32/U568
*1497 mult_32/S2_18_4
*1498 mult_32/ab_18__5_
*1499 mult_32/S2_18_5
*1500 mult_32/ab_18__6_
*1501 mult_32/S2_18_6
*1502 mult_32/ab_18__7_
*1503 mult_32/U565
*1504 mult_32/S2_18_7
*1505 mult_32/ab_18__8_
*1506 mult_32/S2_18_8