*SPEF "1481-1998"
*DESIGN "floating_point_adder"
*DATE "Tue Dec 29 03:23:20 2015"
*VENDOR "Synopsys, Inc."
*PROGRAM "icc_shell"
*VERSION "G-2012.06-ICC-SP2"
*DESIGN_FLOW "PIN_CAP NONE"
*DIVIDER /
*DELIMITER :
*BUS_DELIMITER [ ]
*T_UNIT 1 NS
*C_UNIT 1 FF
*R_UNIT 1 OHM
*L_UNIT 1 HENRY

*NAME_MAP
*1 a_reg[5]
*2 a_reg[4]
*3 a_reg[3]
*4 a_reg[2]
*5 a_reg[1]
*6 a_reg[0]
*7 VDD
*8 VSS
*9 a_reg[13]
*10 a_reg[12]
*11 a_reg[11]
*12 a_reg[10]
*13 a_reg[9]
*14 a_reg[8]
*15 a_reg[7]
*16 a_reg[6]
*17 a_reg[21]
*18 a_reg[20]
*19 a_reg[19]
*20 a_reg[18]
*21 a_reg[17]
*22 a_reg[16]
*23 a_reg[15]
*24 a_reg[14]
*25 a_reg[29]
*26 a_reg[28]
*27 a_reg[27]
*28 a_reg[26]
*29 a_reg[25]
*30 a_reg[24]
*31 a_reg[23]
*32 a_reg[22]
*33 b_reg[5]
*34 b_reg[4]
*35 b_reg[3]
*36 b_reg[2]
*37 b_reg[1]
*38 b_reg[0]
*39 a_reg[31]
*40 a_reg[30]
*41 b_reg[13]
*42 b_reg[12]
*43 b_reg[11]
*44 b_reg[10]
*45 b_reg[9]
*46 b_reg[8]
*47 b_reg[7]
*48 b_reg[6]
*49 b_reg[21]
*50 b_reg[20]
*51 b_reg[19]
*52 b_reg[18]
*53 b_reg[17]
*54 b_reg[16]
*55 b_reg[15]
*56 b_reg[14]
*57 b_reg[29]
*58 b_reg[28]
*59 b_reg[27]
*60 b_reg[26]
*61 b_reg[25]
*62 b_reg[24]
*63 b_reg[23]
*64 b_reg[22]
*65 result_reg[5]
*66 result_reg[4]
*67 result_reg[3]
*68 result_reg[2]
*69 result_reg[1]
*70 result_reg[0]
*71 b_reg[31]
*72 b_reg[30]
*73 result_reg[13]
*74 result_reg[12]
*75 result_reg[11]
*76 result_reg[10]
*77 result_reg[9]
*78 result_reg[8]
*79 result_reg[7]
*80 result_reg[6]
*81 result_reg[21]
*82 result_reg[20]
*83 result_reg[19]
*84 result_reg[18]
*85 result_reg[17]
*86 result_reg[16]
*87 result_reg[15]
*88 result_reg[14]
*89 result_reg[29]
*90 result_reg[28]
*91 result_reg[27]
*92 result_reg[26]
*93 result_reg[25]
*94 result_reg[24]
*95 result_reg[23]
*96 result_reg[22]
*97 ERR_reg
*98 NAN_reg
*99 NEG_INF_reg
*100 INF_reg
*101 rst
*102 clk
*103 result_reg[31]
*104 result_reg[30]
*105 sub_62/n9
*106 sub_62/U11
*107 sub_62/U1
*108 b\[23\]
*109 U1917
*110 b_reg_23_
*111 sub_62/U4
*112 sub_63/U8
*113 sub_63/U1
*114 eq_129/U9
*115 U2050
*116 U2033
*117 U1949
*118 N140
*119 srl_62/U152
*120 srl_62/U149
*121 srl_62/U22
*122 srl_62/U21
*123 a\[30\]
*124 sub_62/U10
*125 sub_63/U2_7
*126 eq_129/U21
*127 U2058
*128 U1947
*129 U1914
*130 a_reg_30_
*131 sub_62/n2
*132 sub_62/U2_7
*133 a\[29\]
*134 sub_62/U9
*135 sub_63/U2_6
*136 eq_129/U23
*137 U1916
*138 a_reg_29_
*139 sub_62/n3
*140 sub_62/U2_6
*141 a\[28\]
*142 sub_62/U8
*143 sub_63/U2_5
*144 eq_129/U22
*145 U1918
*146 a_reg_28_
*147 sub_62/n4
*148 sub_62/U2_5
*149 a\[27\]
*150 sub_62/U7
*151 sub_63/U2_4
*152 eq_129/U17
*153 U2040
*154 U2028
*155 U1919
*156 a_reg_27_
*157 sub_62/n5
*158 sub_62/U2_4
*159 a\[26\]
*160 sub_62/U6
*161 sub_63/U2_3
*162 eq_129/U18
*163 U1946
*164 U1912
*165 a_reg_26_
*166 sub_62/n6
*167 sub_62/U2_3
*168 a\[25\]
*169 sub_62/U5
*170 sub_63/U2_2
*171 eq_129/U19
*172 U2035
*173 U2032
*174 U1913
*175 a_reg_25_
*176 sub_62/n7
*177 sub_62/U2_2
*178 sub_62/n1
*179 sub_62/U3
*180 a\[23\]
*181 sub_63/U11
*182 sub_63/U9
*183 a_reg_23_
*184 sub_62/carry\[1\]
*185 sub_62/U2_1
*186 a\[24\]
*187 sub_62/U2
*188 sub_63/U2_1
*189 eq_129/U20
*190 U2051
*191 U1915
*192 a_reg_24_
*193 sub_62/n8
*194 b\[24\]
*195 sub_63/U7
*196 U2052
*197 U2034
*198 b_reg_24_
*199 sub_62/carry\[2\]
*200 N141
*201 srl_62/U20
*202 b\[25\]
*203 sub_63/U2
*204 b_reg_25_
*205 sub_62/carry\[3\]
*206 N142
*207 srl_62/U97
*208 srl_62/U1
*209 srl_62/U147
*210 srl_62/U145
*211 srl_62/U139
*212 srl_62/U125
*213 srl_62/U115
*214 srl_62/U109
*215 srl_62/U101
*216 b\[26\]
*217 sub_63/U3
*218 U2039
*219 U2031
*220 b_reg_26_
*221 sub_62/carry\[4\]
*222 N143
*223 srl_62/U154
*224 b\[27\]
*225 sub_63/U4
*226 U1950
*227 b_reg_27_
*228 sub_62/carry\[5\]
*229 N144
*230 srl_62/U135
*231 b\[28\]
*232 sub_63/U5
*233 U2045
*234 U2029
*235 b_reg_28_
*236 sub_62/carry\[6\]
*237 N145
*238 srl_62/U155
*239 b\[29\]
*240 b_reg_29_
*241 sub_63/U6
*242 U2057
*243 U2044
*244 U2043
*245 sub_62/carry\[7\]
*246 N146
*247 b\[30\]
*248 sub_63/U10
*249 U2049
*250 U2047
*251 b_reg_30_
*252 N147
*253 srl_62/U129
*254 srl_62/U82
*255 srl_62/U70
*256 srl_62/U63
*257 srl_62/U19
*258 srl_62/n122
*259 srl_62/n106
*260 srl_62/U133
*261 srl_62/U94
*262 srl_62/U7
*263 srl_62/n26
*264 srl_62/U153
*265 srl_62/U105
*266 srl_62/U12
*267 srl_62/n25
*268 srl_62/U126
*269 srl_62/n85
*270 srl_62/U5
*271 srl_62/U150
*272 srl_62/U144
*273 srl_62/U128
*274 srl_62/U117
*275 srl_62/U91
*276 srl_62/U73
*277 srl_62/U66
*278 srl_62/n82
*279 srl_62/U151
*280 srl_62/U127
*281 srl_62/U84
*282 srl_62/U72
*283 srl_62/U65
*284 srl_62/U2
*285 srl_62/n30
*286 srl_62/U120
*287 srl_62/U112
*288 srl_62/U37
*289 srl_62/n31
*290 srl_62/U107
*291 srl_62/U35
*292 srl_62/n58
*293 srl_62/U53
*294 srl_62/U6
*295 srl_62/U148
*296 srl_62/U99
*297 srl_62/U78
*298 srl_62/n129
*299 srl_62/n84
*300 srl_62/U9
*301 a\[18\]
*302 srl_62/U103
*303 srl_62/U44
*304 eq_129/U13
*305 U1932
*306 U1889
*307 a_reg_18_
*308 a\[19\]
*309 srl_62/U116
*310 srl_62/U42
*311 eq_129/U14
*312 U1895
*313 a_reg_19_
*314 srl_62/n75
*315 srl_62/U108
*316 srl_62/U59
*317 a\[21\]
*318 eq_129/U7
*319 U1930
*320 U1903
*321 a_reg_21_
*322 a\[22\]
*323 eq_129/U8
*324 U1931
*325 U1905
*326 a_reg_22_
*327 srl_62/n128
*328 srl_62/n22
*329 srl_62/U104
*330 srl_62/U89
*331 srl_62/U85
*332 srl_62/U77
*333 srl_62/U69
*334 srl_62/U141
*335 srl_62/U138
*336 srl_62/U131
*337 srl_62/U122
*338 srl_62/U114
*339 srl_62/n27
*340 srl_62/U36
*341 srl_62/n127
*342 srl_62/U29
*343 srl_62/n15
*344 srl_62/U81
*345 srl_62/n51
*346 srl_62/U146
*347 srl_62/U51
*348 srl_62/n10
*349 srl_62/U142
*350 srl_62/U123
*351 srl_62/U96
*352 srl_62/U74
*353 srl_62/n108
*354 srl_62/U134
*355 srl_62/U98
*356 srl_62/n89
*357 srl_62/U136
*358 srl_62/U87
*359 srl_62/U75
*360 srl_62/U67
*361 srl_62/U13
*362 a\[6\]
*363 srl_62/U90
*364 srl_62/U76
*365 eq_129/U34
*366 U1925
*367 U1834
*368 a_reg_6_
*369 a\[7\]
*370 srl_62/U68
*371 eq_129/U33
*372 U1926
*373 U1845
*374 a_reg_7_
*375 srl_62/n126
*376 srl_62/U30
*377 srl_62/n16
*378 srl_62/U143
*379 srl_62/n23
*380 srl_62/U111
*381 srl_62/U106
*382 srl_62/U88
*383 srl_62/U140
*384 srl_62/U137
*385 srl_62/U132
*386 srl_62/U121
*387 srl_62/U119
*388 srl_62/U113
*389 a\[5\]
*390 eq_129/U35
*391 U1828
*392 a_reg_5_
*393 srl_62/n24
*394 a\[4\]
*395 srl_62/U49
*396 eq_129/U36
*397 U1820
*398 a_reg_4_
*399 srl_62/n73
*400 srl_62/U58
*401 srl_62/n14
*402 srl_62/U61
*403 srl_62/U60
*404 srl_62/n88
*405 srl_62/n37
*406 srl_62/U41
*407 srl_62/n18
*408 srl_62/n36
*409 srl_62/U40
*410 srl_62/n125
*411 a\[9\]
*412 srl_62/U48
*413 eq_129/U40
*414 U1855
*415 a_reg_9_
*416 a\[8\]
*417 srl_62/U32
*418 eq_129/U41
*419 U1849
*420 a_reg_8_
*421 srl_62/n50
*422 srl_62/n87
*423 srl_62/n33
*424 srl_62/U39
*425 srl_62/n32
*426 srl_62/U38
*427 srl_62/n124
*428 a\[13\]
*429 srl_62/U47
*430 eq_129/U45
*431 U1940
*432 U1871
*433 a_reg_13_
*434 a\[12\]
*435 srl_62/U43
*436 eq_129/U46
*437 U1865
*438 a_reg_12_
*439 srl_62/n52
*440 srl_62/n123
*441 srl_62/U17
*442 srl_62/n78
*443 srl_62/U124
*444 srl_62/U86
*445 srl_62/U71
*446 srl_62/U64
*447 srl_62/n8
*448 srl_62/n118
*449 srl_62/n80
*450 srl_62/U130
*451 srl_62/U83
*452 srl_62/U10
*453 a\[1\]
*454 srl_62/U34
*455 eq_129/U26
*456 eq_129/U3
*457 U1803
*458 a_reg_1_
*459 a\[0\]
*460 eq_129/U29
*461 eq_129/U27
*462 U1952
*463 U1928
*464 U1795
*465 a_reg_0_
*466 srl_62/n121
*467 srl_62/n42
*468 srl_62/U45
*469 srl_62/n41
*470 srl_62/U46
*471 srl_62/n120
*472 srl_62/n119
*473 N148
*474 a\[20\]
*475 eq_129/U6
*476 U1897
*477 a_reg_20_
*478 srl_62/n117
*479 srl_62/n28
*480 srl_62/n29
*481 srl_62/n66
*482 srl_62/U55
*483 srl_62/U24
*484 srl_62/n109
*485 srl_62/n19
*486 srl_62/U100
*487 srl_62/n95
*488 srl_62/U118
*489 srl_62/U93
*490 srl_62/U14
*491 srl_62/n7
*492 srl_62/U62
*493 srl_62/n107
*494 srl_62/U95
*495 srl_62/U3
*496 srl_62/n6
*497 srl_62/n47
*498 srl_62/U110
*499 srl_62/U50
*500 srl_62/n35
*501 srl_62/n34
*502 srl_62/n116
*503 a\[11\]
*504 eq_129/U38
*505 U1863
*506 a_reg_11_
*507 a\[10\]
*508 eq_129/U39
*509 U1859
*510 a_reg_10_
*511 srl_62/n61
*512 srl_62/U54
*513 srl_62/n115
*514 a\[15\]
*515 eq_129/U43
*516 U1929
*517 U1879
*518 a_reg_15_
*519 a\[14\]
*520 eq_129/U44
*521 U1873
*522 a_reg_14_
*523 srl_62/n68
*524 srl_62/U25
*525 srl_62/n45
*526 srl_62/U56
*527 srl_62/U52
*528 srl_62/U102
*529 srl_62/U80
*530 srl_62/n49
*531 N158
*532 srl_62/n114
*533 srl_62/U33
*534 srl_62/n20
*535 srl_62/n59
*536 srl_62/n86
*537 srl_62/U92
*538 srl_62/U15
*539 srl_62/n113
*540 srl_62/n54
*541 srl_62/n112
*542 a\[16\]
*543 eq_129/U11
*544 U1881
*545 a_reg_16_
*546 srl_62/n56
*547 N159
*548 srl_62/n67
*549 srl_62/U8
*550 srl_62/n4
*551 srl_62/U57
*552 N160
*553 srl_62/n111
*554 srl_62/n48
*555 srl_62/n71
*556 srl_62/n110
*557 a\[17\]
*558 eq_129/U12
*559 U1887
*560 a_reg_17_
*561 srl_62/n72
*562 N161
*563 srl_62/n63
*564 srl_62/U16
*565 srl_62/n11
*566 srl_62/U79
*567 N162
*568 N163
*569 N164
*570 srl_62/n46
*571 srl_62/n102
*572 N165
*573 srl_62/n97
*574 N166
*575 N167
*576 srl_62/n105
*577 srl_62/U31
*578 srl_62/n21
*579 srl_62/n69
*580 srl_62/n104
*581 srl_62/n44
*582 srl_62/n103
*583 srl_62/U18
*584 srl_62/n9
*585 srl_62/n98
*586 srl_62/n40
*587 srl_62/n100
*588 srl_62/n43
*589 srl_62/n101
*590 srl_62/n99
*591 N149
*592 N168
*593 N169
*594 N170
*595 N171
*596 U1472
*597 srl_62/n39
*598 srl_62/n38
*599 srl_62/n96
*600 srl_62/n60
*601 srl_62/n92
*602 srl_62/n76
*603 srl_62/n94
*604 srl_62/n93
*605 srl_62/n13
*606 srl_62/n91
*607 N150
*608 U1810
*609 srl_62/n90
*610 srl_62/n53
*611 srl_62/n79
*612 srl_62/n83
*613 srl_62/n81
*614 srl_62/n12
*615 srl_62/n77
*616 N151
*617 U1815
*618 srl_62/n64
*619 srl_62/n57
*620 srl_62/n65
*621 srl_62/U4
*622 srl_62/n5
*623 srl_62/n74
*624 srl_62/U26
*625 srl_62/n1
*626 N152
*627 srl_62/n70
*628 srl_62/U27
*629 srl_62/n2
*630 N153
*631 srl_62/n17
*632 srl_62/n62
*633 N154
*634 srl_62/n55
*635 srl_62/U28
*636 srl_62/n3
*637 N155
*638 N156
*639 N157
*640 a\[3\]
*641 eq_129/U31
*642 a_reg_3_
*643 a\[2\]
*644 eq_129/U30
*645 a_reg_2_
*646 sub_63/n9
*647 N174
*648 srl_63/U152
*649 srl_63/U149
*650 srl_63/U22
*651 srl_63/U21
*652 sub_63/n2
*653 sub_63/n1
*654 sub_63/carry\[1\]
*655 sub_63/n8
*656 sub_63/n3
*657 sub_63/n4
*658 sub_63/n5
*659 sub_63/n6
*660 sub_63/n7
*661 sub_63/carry\[2\]
*662 N175
*663 srl_63/U20
*664 sub_63/carry\[3\]
*665 N176
*666 srl_63/U97
*667 srl_63/U1
*668 srl_63/U147
*669 srl_63/U145
*670 srl_63/U139
*671 srl_63/U125
*672 srl_63/U115
*673 srl_63/U109
*674 srl_63/U101
*675 sub_63/carry\[4\]
*676 N177
*677 srl_63/U154
*678 sub_63/carry\[5\]
*679 N178
*680 srl_63/U135
*681 sub_63/carry\[6\]
*682 N179
*683 srl_63/U155
*684 sub_63/carry\[7\]
*685 N180
*686 N181
*687 srl_63/U129
*688 srl_63/U82
*689 srl_63/U70
*690 srl_63/U63
*691 srl_63/U19
*692 srl_63/n122
*693 srl_63/n106
*694 srl_63/U133
*695 srl_63/U94
*696 srl_63/U7
*697 srl_63/n26
*698 srl_63/U153
*699 srl_63/U105
*700 srl_63/U12
*701 srl_63/n25
*702 srl_63/U126
*703 srl_63/n85
*704 srl_63/U5
*705 srl_63/U150
*706 srl_63/U144
*707 srl_63/U128
*708 srl_63/U117
*709 srl_63/U91
*710 srl_63/U73
*711 srl_63/U66
*712 srl_63/n82
*713 srl_63/U151
*714 srl_63/U127
*715 srl_63/U84
*716 srl_63/U72
*717 srl_63/U65
*718 srl_63/U2
*719 srl_63/n30
*720 srl_63/U120
*721 srl_63/U112
*722 srl_63/U37
*723 srl_63/n31
*724 srl_63/U107
*725 srl_63/U35
*726 srl_63/n58
*727 srl_63/U53
*728 srl_63/U6
*729 srl_63/U148
*730 srl_63/U99
*731 srl_63/U78
*732 srl_63/n129
*733 srl_63/n84
*734 srl_63/U9
*735 b\[18\]
*736 srl_63/U103
*737 srl_63/U44
*738 U1943
*739 U1899
*740 b_reg_18_
*741 b\[19\]
*742 srl_63/U116
*743 srl_63/U42
*744 U1901
*745 b_reg_19_
*746 srl_63/n75
*747 srl_63/U108
*748 srl_63/U59
*749 b\[21\]
*750 U1938
*751 U1909
*752 b_reg_21_
*753 b\[22\]
*754 U1939
*755 U1911
*756 b_reg_22_
*757 srl_63/n128
*758 srl_63/n22
*759 srl_63/U104
*760 srl_63/U89
*761 srl_63/U85
*762 srl_63/U77
*763 srl_63/U69
*764 srl_63/U141
*765 srl_63/U138
*766 srl_63/U131
*767 srl_63/U122
*768 srl_63/U114
*769 srl_63/n27
*770 srl_63/U36
*771 srl_63/n127
*772 srl_63/U29
*773 srl_63/n15
*774 srl_63/U81
*775 srl_63/n51
*776 srl_63/U146
*777 srl_63/U51
*778 srl_63/n10
*779 srl_63/U142
*780 srl_63/U123
*781 srl_63/U96
*782 srl_63/U74
*783 srl_63/n108
*784 srl_63/U134
*785 srl_63/U98
*786 srl_63/n89
*787 srl_63/U136
*788 srl_63/U87
*789 srl_63/U75
*790 srl_63/U67
*791 srl_63/U13
*792 b\[6\]
*793 srl_63/U90
*794 srl_63/U76
*795 U1933
*796 U1847
*797 b_reg_6_
*798 b\[7\]
*799 srl_63/U68
*800 U1934
*801 U1853
*802 b_reg_7_
*803 srl_63/n126
*804 srl_63/U30
*805 srl_63/n16
*806 srl_63/U143
*807 srl_63/n23
*808 srl_63/U111
*809 srl_63/U106
*810 srl_63/U88
*811 srl_63/U140
*812 srl_63/U137
*813 srl_63/U132
*814 srl_63/U121
*815 srl_63/U119
*816 srl_63/U113
*817 b\[5\]
*818 U1837
*819 b_reg_5_
*820 srl_63/n24
*821 b\[4\]
*822 srl_63/U49
*823 U1830
*824 b_reg_4_
*825 srl_63/n73
*826 srl_63/U58
*827 srl_63/n14
*828 srl_63/U61
*829 srl_63/U60
*830 srl_63/n88
*831 srl_63/n37
*832 srl_63/U41
*833 srl_63/n18
*834 srl_63/n36
*835 srl_63/U40
*836 srl_63/n125
*837 b\[9\]
*838 srl_63/U48
*839 U1861
*840 b_reg_9_
*841 b\[8\]
*842 srl_63/U32
*843 U1857
*844 b_reg_8_
*845 srl_63/n50
*846 srl_63/n87
*847 srl_63/n33
*848 srl_63/U39
*849 srl_63/n32
*850 srl_63/U38
*851 srl_63/n124
*852 b\[13\]
*853 srl_63/U47
*854 U1944
*855 U1877
*856 b_reg_13_
*857 b\[12\]
*858 srl_63/U43
*859 U1875
*860 b_reg_12_
*861 srl_63/n52
*862 srl_63/n123
*863 srl_63/U17
*864 srl_63/n78
*865 srl_63/U124
*866 srl_63/U86
*867 srl_63/U71
*868 srl_63/U64
*869 srl_63/n8
*870 srl_63/n118
*871 srl_63/n80
*872 srl_63/U130
*873 srl_63/U83
*874 srl_63/U10
*875 b\[1\]
*876 srl_63/U34
*877 eq_129/U28
*878 eq_129/U1
*879 U1812
*880 b_reg_1_
*881 b\[0\]
*882 eq_129/U2
*883 U1936
*884 U1805
*885 b_reg_0_
*886 srl_63/n121
*887 srl_63/n42
*888 srl_63/U45
*889 srl_63/n41
*890 srl_63/U46
*891 srl_63/n120
*892 srl_63/n119
*893 N182
*894 b\[20\]
*895 U1907
*896 b_reg_20_
*897 srl_63/n117
*898 srl_63/n28
*899 srl_63/n29
*900 srl_63/n66
*901 srl_63/U55
*902 srl_63/U24
*903 srl_63/n109
*904 srl_63/n19
*905 srl_63/U100
*906 srl_63/n95
*907 srl_63/U118
*908 srl_63/U93
*909 srl_63/U14
*910 srl_63/n7
*911 srl_63/U62
*912 srl_63/n107
*913 srl_63/U95
*914 srl_63/U3
*915 srl_63/n6
*916 srl_63/n47
*917 srl_63/U110
*918 srl_63/U50
*919 srl_63/n35
*920 srl_63/n34
*921 srl_63/n116
*922 b\[11\]
*923 U1867
*924 b_reg_11_
*925 b\[10\]
*926 U1869
*927 b_reg_10_
*928 srl_63/n61
*929 srl_63/U54
*930 srl_63/n115
*931 b\[15\]
*932 U1937
*933 U1885
*934 b_reg_15_
*935 b\[14\]
*936 U1883
*937 b_reg_14_
*938 srl_63/n68
*939 srl_63/U25
*940 srl_63/n45
*941 srl_63/U56
*942 srl_63/U52
*943 srl_63/U102
*944 srl_63/U80
*945 srl_63/n49
*946 N192
*947 srl_63/n114
*948 srl_63/U33
*949 srl_63/n20
*950 srl_63/n59
*951 srl_63/n86
*952 srl_63/U92
*953 srl_63/U15
*954 srl_63/n113
*955 srl_63/n54
*956 srl_63/n112
*957 b\[16\]
*958 U1891
*959 b_reg_16_
*960 srl_63/n56
*961 N193
*962 srl_63/n67
*963 srl_63/U8
*964 srl_63/n4
*965 srl_63/U57
*966 N194
*967 srl_63/n111
*968 srl_63/n48
*969 srl_63/n71
*970 srl_63/n110
*971 b\[17\]
*972 U1893
*973 b_reg_17_
*974 srl_63/n72
*975 N195
*976 srl_63/n63
*977 srl_63/U16
*978 srl_63/n11
*979 srl_63/U79
*980 N196
*981 N197
*982 N198
*983 srl_63/n46
*984 srl_63/n102
*985 N199
*986 srl_63/n97
*987 N200
*988 N201
*989 srl_63/n105
*990 srl_63/U31
*991 srl_63/n21
*992 srl_63/n69
*993 srl_63/n104
*994 srl_63/n44
*995 srl_63/n103
*996 srl_63/U18
*997 srl_63/n9
*998 srl_63/n98
*999 srl_63/n40
*1000 srl_63/n100
*1001 srl_63/n43
*1002 srl_63/n101
*1003 srl_63/n99
*1004 N183
*1005 N202
*1006 N203
*1007 N204
*1008 N205
*1009 U1473
*1010 srl_63/n39
*1011 srl_63/n38
*1012 srl_63/n96
*1013 srl_63/n60
*1014 srl_63/n92
*1015 srl_63/n76
*1016 srl_63/n94
*1017 srl_63/n93
*1018 srl_63/n13
*1019 srl_63/n91
*1020 N184
*1021 U1817
*1022 srl_63/n90
*1023 srl_63/n53
*1024 srl_63/n79
*1025 srl_63/n83
*1026 srl_63/n81
*1027 srl_63/n12
*1028 srl_63/n77
*1029 N185
*1030 U1825
*1031 srl_63/n64
*1032 srl_63/n57
*1033 srl_63/n65
*1034 srl_63/U4
*1035 srl_63/n5
*1036 srl_63/n74
*1037 srl_63/U26
*1038 srl_63/n1
*1039 N186
*1040 srl_63/n70
*1041 srl_63/U27
*1042 srl_63/n2
*1043 N187
*1044 srl_63/n17
*1045 srl_63/n62
*1046 N188
*1047 srl_63/n55
*1048 srl_63/U28
*1049 srl_63/n3
*1050 N189
*1051 N190
*1052 N191
*1053 b\[3\]
*1054 b_reg_3_
*1055 b\[2\]
*1056 b_reg_2_
*1057 r172_A_0_
*1058 add_68/U2
*1059 add_68/U1
*1060 sub_68/U27
*1061 sub_68/U4
*1062 sub_68_2/U28
*1063 sub_68_2/U5
*1064 U2060
*1065 U1804
*1066 r172_B_0_
*1067 sub_68/U28
*1068 sub_68/U26
*1069 sub_68_2/U27
*1070 sub_68_2/U4
*1071 U1794
*1072 add_68/n2
*1073 add_68/U1_1
*1074 N212
*1075 U2025
*1076 r172_B_1_
*1077 sub_68/U2_1
*1078 sub_68_2/U3
*1079 U2061
*1080 U1802
*1081 r172_A_1_
*1082 sub_68/U3
*1083 sub_68_2/U2_1
*1084 U2062
*1085 U1811
*1086 add_68/carry\[2\]
*1087 add_68/U1_2
*1088 N213
*1089 U2027
*1090 r172_B_2_
*1091 sub_68/U2_2
*1092 sub_68_2/U6
*1093 U2063
*1094 U1809
*1095 r172_A_2_
*1096 sub_68/U5
*1097 sub_68_2/U2_2
*1098 U1816
*1099 add_68/carry\[3\]
*1100 add_68/U1_3
*1101 N214
*1102 U2026
*1103 r172_B_3_
*1104 sub_68/U2_3
*1105 sub_68_2/U7
*1106 U1814
*1107 r172_A_3_
*1108 sub_68/U6
*1109 sub_68_2/U2_3
*1110 U2064
*1111 U1824
*1112 add_68/carry\[4\]
*1113 add_68/U1_4
*1114 N215
*1115 U2024
*1116 r172_B_4_
*1117 sub_68/U2_4
*1118 sub_68_2/U8
*1119 U2065
*1120 U1819
*1121 r172_A_4_
*1122 sub_68/U7
*1123 sub_68_2/U2_4
*1124 U1829
*1125 add_68/carry\[5\]
*1126 add_68/U1_5
*1127 N216
*1128 U2018
*1129 r172_B_5_
*1130 sub_68/U2_5
*1131 sub_68_2/U9
*1132 U1827
*1133 r172_A_5_
*1134 sub_68/U8
*1135 sub_68_2/U2_5
*1136 U2066
*1137 U1836
*1138 add_68/carry\[6\]
*1139 add_68/U1_6
*1140 N217
*1141 U2023
*1142 r172_B_6_
*1143 sub_68/U2_6
*1144 sub_68_2/U10
*1145 U2067
*1146 U1833
*1147 r172_A_6_
*1148 sub_68/U9
*1149 sub_68_2/U2_6
*1150 U1846
*1151 add_68/carry\[7\]
*1152 add_68/U1_7
*1153 N218
*1154 U2019
*1155 r172_B_7_
*1156 sub_68/U2_7
*1157 sub_68_2/U11
*1158 U1844
*1159 r172_A_7_
*1160 sub_68/U10
*1161 sub_68_2/U2_7
*1162 U2068
*1163 U1852
*1164 add_68/carry\[8\]
*1165 add_68/U1_8
*1166 N219
*1167 U2022
*1168 r172_B_8_
*1169 sub_68/U2_8
*1170 sub_68_2/U12
*1171 U2069
*1172 U1848
*1173 r172_A_8_
*1174 sub_68/U11
*1175 sub_68_2/U2_8
*1176 U1856
*1177 add_68/carry\[9\]
*1178 add_68/U1_9
*1179 N220
*1180 U2020
*1181 r172_B_9_
*1182 sub_68/U2_9
*1183 sub_68_2/U13
*1184 U1854
*1185 r172_A_9_
*1186 sub_68/U12
*1187 sub_68_2/U2_9
*1188 U2070
*1189 U1860
*1190 add_68/carry\[10\]
*1191 add_68/U1_10
*1192 N221
*1193 U2021
*1194 r172_B_10_
*1195 sub_68/U2_10
*1196 sub_68_2/U14
*1197 U2071
*1198 U1858
*1199 r172_A_10_
*1200 sub_68/U13
*1201 sub_68_2/U2_10
*1202 U1868
*1203 add_68/carry\[11\]
*1204 add_68/U1_11
*1205 N222
*1206 U631
*1207 r172_B_11_
*1208 sub_68/U2_11
*1209 sub_68_2/U15
*1210 U1862
*1211 r172_A_11_
*1212 sub_68/U14
*1213 sub_68_2/U2_11
*1214 U2072
*1215 U1866
*1216 add_68/carry\[12\]
*1217 add_68/U1_12
*1218 N223
*1219 U826
*1220 r172_B_12_
*1221 sub_68/U2_12
*1222 sub_68_2/U16
*1223 U2073
*1224 U1864
*1225 r172_A_12_
*1226 sub_68/U15
*1227 sub_68_2/U2_12
*1228 U1874
*1229 add_68/carry\[13\]
*1230 add_68/U1_13
*1231 N224
*1232 U628
*1233 r172_B_13_
*1234 sub_68/U2_13
*1235 sub_68_2/U17
*1236 U1870
*1237 r172_A_13_
*1238 sub_68/U16
*1239 sub_68_2/U2_13
*1240 U2074
*1241 U1876
*1242 add_68/carry\[14\]
*1243 add_68/U1_14
*1244 N225
*1245 U827
*1246 r172_B_14_
*1247 sub_68/U2_14
*1248 sub_68_2/U18
*1249 U2075
*1250 U1872
*1251 r172_A_14_
*1252 sub_68/U17
*1253 sub_68_2/U2_14
*1254 U1882
*1255 add_68/carry\[15\]
*1256 add_68/U1_15
*1257 N226
*1258 U1717
*1259 r172_B_15_
*1260 sub_68/U2_15
*1261 sub_68_2/U19
*1262 U1878
*1263 r172_A_15_
*1264 sub_68/U18
*1265 sub_68_2/U2_15
*1266 U2076
*1267 U1884
*1268 add_68/carry\[16\]
*1269 add_68/U1_16
*1270 N227
*1271 U828
*1272 r172_B_16_
*1273 sub_68/U2_16
*1274 sub_68_2/U20
*1275 U2077
*1276 U1880
*1277 r172_A_16_
*1278 sub_68/U19
*1279 sub_68_2/U2_16
*1280 U1890
*1281 add_68/carry\[17\]
*1282 add_68/U1_17
*1283 N228
*1284 U829
*1285 r172_B_17_
*1286 sub_68/U2_17
*1287 sub_68_2/U21
*1288 U1886
*1289 r172_A_17_
*1290 sub_68/U20
*1291 sub_68_2/U2_17
*1292 U2078
*1293 U1892
*1294 add_68/carry\[18\]
*1295 add_68/U1_18
*1296 N229
*1297 U1716
*1298 r172_B_18_
*1299 sub_68/U2_18
*1300 sub_68_2/U22
*1301 U2079
*1302 U1888
*1303 r172_A_18_
*1304 sub_68/U21
*1305 sub_68_2/U2_18
*1306 U1898
*1307 add_68/carry\[19\]
*1308 add_68/U1_19
*1309 N230
*1310 U1715
*1311 r172_B_19_
*1312 sub_68/U2_19
*1313 sub_68_2/U23
*1314 U1894
*1315 r172_A_19_
*1316 sub_68/U22
*1317 sub_68_2/U2_19
*1318 U2080
*1319 U1900
*1320 add_68/carry\[20\]
*1321 add_68/U1_20
*1322 N231
*1323 U1714
*1324 r172_B_20_
*1325 sub_68/U2_20
*1326 sub_68_2/U24
*1327 U2081
*1328 U1896
*1329 r172_A_20_
*1330 sub_68/U23
*1331 sub_68_2/U2_20
*1332 U1906
*1333 add_68/carry\[21\]
*1334 add_68/U1_21
*1335 N232
*1336 U1712
*1337 r172_B_21_
*1338 sub_68/U2_21
*1339 sub_68_2/U25
*1340 U1902
*1341 r172_A_21_
*1342 sub_68/U24
*1343 sub_68_2/U2_21
*1344 U2082
*1345 U1908
*1346 add_68/carry\[22\]
*1347 add_68/U1_22
*1348 N233
*1349 U1706
*1350 r172_B_22_
*1351 sub_68/U2_22
*1352 sub_68_2/U26
*1353 U1904
*1354 r172_A_22_
*1355 sub_68/U25
*1356 sub_68_2/U2_22
*1357 U2059
*1358 U1910
*1359 add_68/carry\[23\]
*1360 add_68/U1_23
*1361 N234
*1362 U830
*1363 a_mantissa_23_
*1364 sub_68/U2_23
*1365 sub_68_2/U1
*1366 U2083
*1367 U1644
*1368 b_mantissa_23_
*1369 sub_68/U1
*1370 sub_68_2/U2_23
*1371 U2084
*1372 U1645
*1373 N236
*1374 U1720
*1375 N235
*1376 U1600
*1377 sub_68/n26
*1378 N238
*1379 sub_68/n1
*1380 sub_68/n20
*1381 sub_68/n24
*1382 sub_68/n23
*1383 sub_68/n19
*1384 sub_68/n18
*1385 sub_68/n22
*1386 sub_68/n21
*1387 sub_68/n10
*1388 sub_68/n15
*1389 sub_68/n9
*1390 sub_68/n8
*1391 sub_68/n7
*1392 sub_68/n6
*1393 sub_68/n17
*1394 sub_68/n16
*1395 sub_68/n13
*1396 sub_68/n14
*1397 sub_68/n12
*1398 sub_68/n11
*1399 sub_68/n3
*1400 sub_68/n4
*1401 sub_68/carry\[1\]
*1402 sub_68/n5
*1403 sub_68/carry\[24\]
*1404 sub_68/U2
*1405 N262
*1406 sub_68/n25
*1407 sub_68/carry\[2\]
*1408 N239
*1409 sub_68/carry\[3\]
*1410 N240
*1411 sub_68/carry\[4\]
*1412 N241
*1413 sub_68/carry\[5\]
*1414 N242
*1415 sub_68/carry\[6\]
*1416 N243
*1417 sub_68/carry\[7\]
*1418 N244
*1419 sub_68/carry\[8\]
*1420 N245
*1421 sub_68/carry\[9\]
*1422 N246
*1423 sub_68/carry\[10\]
*1424 N247
*1425 sub_68/carry\[11\]
*1426 N248
*1427 sub_68/carry\[12\]
*1428 N249
*1429 sub_68/carry\[13\]
*1430 N250
*1431 sub_68/carry\[14\]
*1432 N251
*1433 sub_68/carry\[15\]
*1434 N252
*1435 sub_68/carry\[16\]
*1436 N253
*1437 sub_68/carry\[17\]
*1438 N254
*1439 sub_68/carry\[18\]
*1440 N255
*1441 sub_68/carry\[19\]
*1442 N256
*1443 sub_68/carry\[20\]
*1444 N257
*1445 sub_68/carry\[21\]
*1446 N258
*1447 sub_68/carry\[22\]
*1448 N259
*1449 sub_68/carry\[23\]
*1450 N260
*1451 N261
*1452 sub_68_2/n26
*1453 N263
*1454 sub_68_2/n20
*1455 sub_68_2/n24
*1456 sub_68_2/n23
*1457 sub_68_2/n19
*1458 sub_68_2/n18
*1459 sub_68_2/n22
*1460 sub_68_2/n21
*1461 sub_68_2/n10
*1462 sub_68_2/n15
*1463 sub_68_2/n9
*1464 sub_68_2/n8
*1465 sub_68_2/n7
*1466 sub_68_2/n6
*1467 sub_68_2/n17
*1468 sub_68_2/n16
*1469 sub_68_2/n13
*1470 sub_68_2/n14
*1471 sub_68_2/n12
*1472 sub_68_2/n11
*1473 sub_68_2/n3
*1474 sub_68_2/n4
*1475 sub_68_2/n1
*1476 sub_68_2/carry\[1\]
*1477 sub_68_2/n5
*1478 sub_68_2/carry\[24\]
*1479 sub_68_2/U2
*1480 N287
*1481 sub_68_2/n25
*1482 sub_68_2/carry\[2\]
*1483 N264
*1484 sub_68_2/carry\[3\]
*1485 N265
*1486 sub_68_2/carry\[4\]
*1487 N266
*1488 sub_68_2/carry\[5\]
*1489 N267
*1490 sub_68_2/carry\[6\]
*1491 N268
*1492 sub_68_2/carry\[7\]
*1493 N269
*1494 sub_68_2/carry\[8\]
*1495 N270
*1496 sub_68_2/carry\[9\]
*1497 N271
*1498 sub_68_2/carry\[10\]
*1499 N272
*1500 sub_68_2/carry\[11\]
*1501 N273
*1502 sub_68_2/carry\[12\]
*1503 N274
*1504 sub_68_2/carry\[13\]
*1505 N275
*1506 sub_68_2/carry\[14\]
*1507 N276
*1508 sub_68_2/carry\[15\]
*1509 N277
*1510 sub_68_2/carry\[16\]
*1511 N278
*1512 sub_68_2/carry\[17\]
*1513 N279
*1514 sub_68_2/carry\[18\]
*1515 N280
*1516 sub_68_2/carry\[19\]
*1517 N281
*1518 sub_68_2/carry\[20\]
*1519 N282
*1520 sub_68_2/carry\[21\]
*1521 N283
*1522 sub_68_2/carry\[22\]
*1523 N284
*1524 sub_68_2/carry\[23\]
*1525 N285
*1526 N286
*1527 add_98/carry\[7\]
*1528 add_98/U2
*1529 add_98/U1_1_6
*1530 lt_97_A_7_
*1531 U2085
*1532 U1776
*1533 U1601
*1534 N1114
*1535 U1746
*1536 lt_97_A_0_
*1537 add_98/U1
*1538 add_98/U1_1_1
*1539 U1769
*1540 U1697
*1541 U1607
*1542 N1107
*1543 U1765
*1544 lt_97_A_1_
*1545 U1770
*1546 U1695
*1547 U1608
*1548 add_98/carry\[2\]
*1549 add_98/U1_1_2
*1550 N1108
*1551 U1762
*1552 lt_97_A_2_
*1553 U2086
*1554 U1771
*1555 U1676
*1556 U1609
*1557 add_98/carry\[3\]
*1558 add_98/U1_1_3
*1559 N1109
*1560 U1759
*1561 lt_97_A_3_
*1562 U1772
*1563 U1658
*1564 U1610
*1565 add_98/carry\[4\]
*1566 add_98/U1_1_4
*1567 N1110
*1568 U1755
*1569 lt_97_A_4_
*1570 U1773
*1571 U1638
*1572 U1611
*1573 add_98/carry\[5\]
*1574 add_98/U1_1_5
*1575 N1111
*1576 U1751
*1577 lt_97_A_5_
*1578 U1774
*1579 U1622
*1580 U1612
*1581 add_98/carry\[6\]
*1582 N1112
*1583 U1742
*1584 lt_97_A_6_
*1585 U1775
*1586 U1614
*1587 N1113
*1588 U1735
*1589 eq_129/n42
*1590 eq_129/U42
*1591 eq_129/n43
*1592 eq_129/n44
*1593 eq_129/n45
*1594 eq_129/n24
*1595 eq_129/U24
*1596 eq_129/n38
*1597 eq_129/U37
*1598 eq_129/n39
*1599 eq_129/n40
*1600 eq_129/n41
*1601 eq_129/n25
*1602 eq_129/n34
*1603 eq_129/U32
*1604 eq_129/n35
*1605 eq_129/n36
*1606 eq_129/n37
*1607 eq_129/n26
*1608 eq_129/n28
*1609 eq_129/U25
*1610 eq_129/n29
*1611 eq_129/n3
*1612 eq_129/n33
*1613 eq_129/n1
*1614 eq_129/n30
*1615 eq_129/n32
*1616 eq_129/n2
*1617 eq_129/n31
*1618 eq_129/n27
*1619 eq_129/n4
*1620 eq_129/U4
*1621 eq_129/n16
*1622 eq_129/U15
*1623 eq_129/n17
*1624 eq_129/n18
*1625 eq_129/n20
*1626 eq_129/U16
*1627 eq_129/n21
*1628 eq_129/n22
*1629 eq_129/n23
*1630 eq_129/n19
*1631 eq_129/n5
*1632 eq_129/n12
*1633 eq_129/U10
*1634 eq_129/n13
*1635 eq_129/n14
*1636 eq_129/n15
*1637 eq_129/n6
*1638 eq_129/n8
*1639 eq_129/U5
*1640 eq_129/n9
*1641 eq_129/n10
*1642 eq_129/n11
*1643 eq_129/n7
*1644 N1149
*1645 U1783
*1646 n913
*1647 N1105
*1648 U1779
*1649 U1597
*1650 U1594
*1651 n909
*1652 n912
*1653 N209
*1654 U1643
*1655 U1444
*1656 n908
*1657 n907
*1658 n910
*1659 n906
*1660 n293
*1661 n294
*1662 n905
*1663 n2710
*1664 n2720
*1665 n904
*1666 n295
*1667 n297
*1668 n903
*1669 n2740
*1670 n2750
*1671 n902
*1672 n298
*1673 n299
*1674 n901
*1675 n2760
*1676 n2770
*1677 n900
*1678 n300
*1679 n301
*1680 n899
*1681 n2780
*1682 n2790
*1683 n898
*1684 n302
*1685 n303
*1686 n897
*1687 n2800
*1688 n2810
*1689 n896
*1690 n304
*1691 n305
*1692 n895
*1693 n2820
*1694 n2830
*1695 n8940
*1696 n2850
*1697 n306
*1698 n8930
*1699 n2620
*1700 n2630
*1701 n8920
*1702 n2860
*1703 n2870
*1704 n8910
*1705 n2640
*1706 n2650
*1707 n8900
*1708 n288
*1709 n289
*1710 n8890
*1711 n2660
*1712 n2670
*1713 n8880
*1714 n290
*1715 n291
*1716 n8870
*1717 n2680
*1718 n2690
*1719 n886
*1720 n292
*1721 n911
*1722 U1757
*1723 n885
*1724 n2730
*1725 n307
*1726 n773
*1727 n878
*1728 U2048
*1729 n877
*1730 N172
*1731 U9
*1732 U11
*1733 n770
*1734 n876
*1735 U2056
*1736 n875
*1737 U2046
*1738 n873
*1739 U1737
*1740 n883
*1741 U1806
*1742 n874
*1743 n869
*1744 U2055
*1745 U2041
*1746 n871
*1747 U2054
*1748 n870
*1749 U2042
*1750 n872
*1751 n882
*1752 U1747
*1753 n868
*1754 U2053
*1755 n867
*1756 n881
*1757 U1748
*1758 n865
*1759 n864
*1760 U2037
*1761 U2036
*1762 n862
*1763 n879
*1764 U1808
*1765 n767
*1766 n861
*1767 n765
*1768 n772
*1769 n860
*1770 n8590
*1771 N138
*1772 U7
*1773 n8580
*1774 n8570
*1775 U2030
*1776 n8560
*1777 n771
*1778 n8550
*1779 U2038
*1780 n8540
*1781 n769
*1782 n768
*1783 n866
*1784 n8530
*1785 n8520
*1786 n880
*1787 U1796
*1788 n851
*1789 n863
*1790 n766
*1791 n850
*1792 n884
*1793 n420
*1794 U1581
*1795 U1572
*1796 U1518
*1797 U1465
*1798 U1449
*1799 U22
*1800 U1709
*1801 U1684
*1802 U1665
*1803 U1649
*1804 U1641
*1805 U1633
*1806 n384
*1807 U1536
*1808 U1513
*1809 U1475
*1810 U1471
*1811 U1440
*1812 U1433
*1813 U21
*1814 U1710
*1815 U1590
*1816 U1587
*1817 U1580
*1818 n418
*1819 U1629
*1820 U1625
*1821 U20
*1822 U1669
*1823 U1656
*1824 U1653
*1825 U1636
*1826 U1707
*1827 U1690
*1828 U1673
*1829 n416
*1830 U1570
*1831 U1535
*1832 U1528
*1833 U1523
*1834 U1503
*1835 U1435
*1836 U1639
*1837 U1631
*1838 U1578
*1839 U19
*1840 n380
*1841 U1437
*1842 U1424
*1843 U1418
*1844 U18
*1845 U1634
*1846 U1539
*1847 U1510
*1848 n4370
*1849 U1530
*1850 U1507
*1851 U1442
*1852 U1438
*1853 U1431
*1854 U17
*1855 U1627
*1856 U1579
*1857 U1574
*1858 U1567
*1859 U1566
*1860 U1547
*1861 n390
*1862 U1497
*1863 U1482
*1864 U1453
*1865 U16
*1866 U1569
*1867 U1553
*1868 U1538
*1869 U1531
*1870 U1501
*1871 n459
*1872 U1416
*1873 U15
*1874 U1576
*1875 U1502
*1876 U1443
*1877 n458
*1878 U1515
*1879 U14
*1880 n422
*1881 U1426
*1882 U13
*1883 U2017
*1884 N44
*1885 U2016
*1886 N43
*1887 U2015
*1888 N42
*1889 U2014
*1890 N41
*1891 U2013
*1892 N40
*1893 U2012
*1894 N39
*1895 U2011
*1896 N38
*1897 U2010
*1898 N101
*1899 b_reg_31_
*1900 U2009
*1901 N100
*1902 U2008
*1903 N98
*1904 U2007
*1905 N97
*1906 U2006
*1907 N96
*1908 U2005
*1909 N95
*1910 U2004
*1911 N94
*1912 U2003
*1913 N93
*1914 U2002
*1915 N92
*1916 U2001
*1917 N91
*1918 U2000
*1919 N90
*1920 U1999
*1921 N89
*1922 U1998
*1923 N88
*1924 U1997
*1925 N87
*1926 U1996
*1927 N86
*1928 U1995
*1929 N85
*1930 U1994
*1931 N84
*1932 U1993
*1933 N69
*1934 a_reg_31_
*1935 U1992
*1936 N68
*1937 U1991
*1938 N67
*1939 U1990
*1940 N66
*1941 U1989
*1942 N65
*1943 U1988
*1944 N64
*1945 U1987
*1946 N63
*1947 U1986
*1948 N62
*1949 U1985
*1950 N61
*1951 U1984
*1952 N60
*1953 U1983
*1954 N59
*1955 U1982
*1956 N58
*1957 U1981
*1958 N57
*1959 U1980
*1960 N56
*1961 U1979
*1962 N55
*1963 U1978
*1964 N54
*1965 U1977
*1966 N53
*1967 U1976
*1968 N52
*1969 U1975
*1970 N51
*1971 U1974
*1972 N50
*1973 U1973
*1974 N49
*1975 U1972
*1976 N48
*1977 U1971
*1978 N47
*1979 U1970
*1980 N46
*1981 U1969
*1982 N45
*1983 U1968
*1984 N99
*1985 U1967
*1986 N83
*1987 U1966
*1988 N82
*1989 U1965
*1990 N81
*1991 U1964
*1992 N80
*1993 U1963
*1994 N79
*1995 U1962
*1996 N78
*1997 U1961
*1998 N77
*1999 U1960
*2000 N76
*2001 U1959
*2002 N75
*2003 U1958
*2004 N74
*2005 U1957
*2006 N73